# SIP package for  MODFLOW-2005, generated by Flopy.
100 5
1 0.0001 1 2e-12 1
