# DIS package for  MODFLOW-2005, generated by Flopy.
         1        27        13         3         4         1
  0
CONSTANT    2.000000E+02                           #delr                          
CONSTANT    2.000000E+02                           #delc                          
CONSTANT    2.000000E+01                           #model_top                     
CONSTANT   -1.000000E+01                           #botm layer 1                  
    100.000000             1  1.000000  SS 
      1.000000            20  1.000000  TR 
   1000.000000           100  1.000000  TR 
