# Name file for MODFLOW-2005, generated by Flopy version 3.2.6.
#xul:0; yul:5400; rotation:0; proj4_str:+init=EPSG:4326; units:meters; lenuni:1; length_multiplier:1.0 ;start_datetime:1-1-1970
LIST               2  Prob3b.list
DIS               11  Prob3b.dis 
BCF6              15  Prob3b.bcf 
BAS6              13  Prob3b.bas 
SIP               25  Prob3b.sip 
OC                14  Prob3b.oc 
RCH               19  Prob3b.rch 
DATA(BINARY)      51  Prob3b.hds REPLACE
