# RCH package for  MODFLOW-2005, generated by Flopy.
         3         0
         1        -1 # Stress period 1
CONSTANT    2.300000E-03                           #rech_1                        
         1        -1 # Stress period 2
CONSTANT    0.000000E+00                           #rech_2                        
         1        -1 # Stress period 3
CONSTANT    2.300000E-03                           #rech_3                        
