# Name file for MODFLOW-2005, generated by Flopy version 3.2.6.
#xul:0; yul:1; rotation:0; proj4_str:+init=EPSG:4326; units:meters; lenuni:2; length_multiplier:1.0 ;start_datetime:1-1-1970
LIST               2  Prob1a.list
DIS               11  Prob1a.dis 
BAS6              13  Prob1a.bas 
BCF6              15  Prob1a.bcf 
SIP               25  Prob1a.sip 
OC                14  Prob1a.oc 
DATA(BINARY)      51  Prob1a.hds REPLACE
