# SIP package for  MODFLOW-2005, generated by Flopy.
20 5
1 1e-06 1 2e-12 1
