# BAS6 package for  MODFLOW-2005, generated by Flopy.
 FREE
INTERNAL               1     (4I10) -1 #ibound layer 1                
        -1         1         1        -1
        -999.99
INTERNAL               1   (4E15.6) -1 #strt layer 1                  
   5.000000E+01   5.000000E+01   5.000000E+01   4.700000E+01
